Version 4
SHEET 1 3128 1116
WIRE 816 -112 -48 -112
WIRE 800 -96 -32 -96
WIRE 784 -80 -16 -80
WIRE 384 32 320 32
WIRE 480 32 384 32
WIRE 384 64 320 64
WIRE 480 64 384 64
WIRE 384 96 320 96
WIRE 480 96 384 96
WIRE 384 128 320 128
WIRE 480 128 384 128
WIRE 784 128 784 -80
WIRE 784 128 720 128
WIRE -16 144 -16 -80
WIRE 32 144 -16 144
WIRE 80 144 32 144
WIRE 384 160 320 160
WIRE 480 160 384 160
WIRE 800 160 800 -96
WIRE 800 160 720 160
WIRE -32 176 -32 -96
WIRE 32 176 -32 176
WIRE 80 176 32 176
WIRE 384 192 320 192
WIRE 480 192 384 192
WIRE 816 192 816 -112
WIRE 816 192 720 192
WIRE -48 208 -48 -112
WIRE 32 208 -48 208
WIRE 80 208 32 208
WIRE 384 224 320 224
WIRE 480 224 384 224
WIRE 384 256 320 256
WIRE 480 256 384 256
WIRE 416 288 320 288
WIRE 480 288 416 288
WIRE 416 320 320 320
WIRE 480 320 416 320
WIRE 400 352 320 352
WIRE 432 352 400 352
FLAG 32 144 a
FLAG 32 176 b
FLAG 32 208 c
FLAG 384 32 angle
FLAG 384 64 h1
FLAG 384 96 h2
FLAG 384 128 h3
FLAG 384 160 i_sns_a
FLAG 384 192 i_sns_b
FLAG 384 224 i_sns_c
FLAG 384 256 p_28v
FLAG 416 320 w
FLAG 416 288 target
FLAG 400 352 clk
SYMBOL control_cont_NoHallAdv 592 160 R0
WINDOW 39 33 203 Center 2
SYMATTR SpiceLine deg_range=15 trap_slew=10k
SYMATTR InstName X4
SYMBOL USA13030_X1_NG_cont 192 176 R0
SYMATTR InstName X1
TEXT -120 464 Left 2 !.tran 100m
TEXT -216 -520 Left 2 ;PySPICE NGspice Parser compatibility requirements \n(not comprehensive for all circuits, but only issues found for this circuit):\n* No utf-8 "mu" for micro allowed.  Must use simple 'u'.\n* No spaces allowed in equations\n* No IF statements (they exist in NGspice, but the format is different)\n* No "limit" function. Use min(max(,),) instead.\n* No .param statements; parameters must be passed at the instance callout only.\n* No .ic statements ; initial conditions can only exist at the instance callout\n* No SGN function.  Check NGspice manual for other functions that differ from LTspice\n* Only independent sources can be referenced for currents used in expressions (no i(L4) allowed for example; instead insert a 0V source and read the current through it).\n* Do not rely on case to differentiate labels.  Netlist is converted to all lower case by PySPICE.\n* Need to prepend "dc x " (where 'x' is the initial value, usually zero) manually for all sources that do not have an explicit DC value (PWL, PULSE, etc), otherwise NGspice issue a warning (benign).\n* Inductors and capacitors need to have their parasitics shown explicitly, not built into the component\n* No dashes allowed in file names
TEXT 48 464 Left 2 !;op
TEXT 248 464 Left 2 !.ic V(p_28v)=28
TEXT 728 248 Left 2 ;This control block (crude) is replaced by Python when \nexporting the usa13030_x1_ng_cont subcircuit to PySPICE.
TEXT -224 240 Left 2 ;USA13030_X1\nNGspice-Compatible\n Continuous (smoothed \nPWM) Subcircuit --------->
