.SUBCKT mq100 1 2 3


* External Node Designations
* Node 1 -> Drain
* Node 2 -> Gate
* Node 3 -> Source

*.model mq100 VDMOS(Rg=3 Rd=5m Rs=1m Vto=2.2 Kp=63 Cgdmax=2n Cgdmin=1n Cgs=1.9n Cjo=1n Is=2.3p Rb=6m mfg=Fairchild Vds=30 Ron=15m Qg=27n)

*.model NMOS(KP=.001)

.model mq100 VDMOS(Rd=3m Rs=3m Vto=2.6 Kp=60 Cgdmax=1.9n Cgdmin=50p Cgs=3.1n Cjo=1n Is=5.5p Rb=5.7m)

*.model NMOS(LEVEL=2 KP=0.3E-3 VTO=1)

.ENDS mq100