* PSpice Model Editor - Version 9.2.1
.SUBCKT IXKK85N60C 1 2 3
*$
*DEVICE=IXKK85N60C,NMOS

* IXKK85N60C NMOS model
* updated using Model Editor release 9.2.1 on 11/25/03 at 15:31
* The Model Editor is a PSpice product hem.
.MODEL IXKK85N60C NMOS
+ LEVEL=3
+ L=2.0000E-6
+ W=860
+ KP=1.0387E-6
+ RS=10.000E-3
+ RD=19.626E-3
+ VTO=3.4544
+ RDS=12.000E6
+ TOX=2.0000E-6
+ CGSO=11.628E-18
+ CGDO=729.90E-15
+ CBD=80.669E-9
+ MJ=1.1673
+ PB=3
+ RG=10.000E-3
+ IS=21.329E-6
+ N=2.3569
+ RB=1.0000E-9
+ GAMMA=0
+ KAPPA=0
*$
.ENDS IXKK85N60C